1

   Abaqus 2026                                  Date 13-4ÔÂ-2026   Time 13:19:00
   For use by Supplied by Team-SolidSQUAD under license from Dassault Systemes or its subsidiary.



                         The Abaqus Software is a product of:

                           Dassault Systemes Americas Corp.
                           1301 Atwood Avenue, Suite 101W
                              Johnston, RI 02919, USA
 


                   The Abaqus Software is available only under license
                   from Dassault Systemes or its subsidiary and may be
                   used or reproduced only in accordance with the terms
                   of such license.
 
                          On machine DESKTOP-623UBP1 
                          you are authorized to run
                          Abaqus/Standard until 31-Dec-2055

                          Your site id is:  


 
                    For assistance or any other information you may
                    obtain contact information for your local office
                    from the world wide web at:

                      https://www.3ds.com/products-services/simulia/services-support/locations/

 
                * * * * * * * * * * * * * * * * * * * * * * * * * * * * * * 
                *                                                         * 
                *                   *****************                     * 
                *                   *  N O T I C E  *                     * 
                *                   *****************                     * 
                *                                                         * 
                *                                                         * 
                *                       Abaqus 2026                       * 
                *                                                         * 
                *       BUILD ID: 2025_09_23-22.43.03 RELr428 206049      * 
                *                                                         * 
                *                                                         * 
                *  Please make sure you are using                         * 
                *  release Abaqus 2026 manuals                            * 
                *  plus the notes accompanying this release.              * 
                *                                                         * 
                *                                                         * 
                *                                                         * 
                *                                                         * 
                * * * * * * * * * * * * * * * * * * * * * * * * * * * * * * 


 



     PROCESSING PART, INSTANCE, AND ASSEMBLY INFORMATION
   *******************************************************


     END PROCESSING PART, INSTANCE, AND ASSEMBLY INFORMATION
   ***********************************************************




     OPTIONS BEING PROCESSED
   ***************************


  *heading
          Cantilever beam under tip load - sim E2E verification                                                                                                                                                                                                                                                                                                                                                                                                                                                                           
  *material, name=STEEL
  *elastic
  *solidsection, elset=BEAM, material=STEEL
  *solidsection, elset=BEAM, material=STEEL
  *boundary
  *boundary
  *step, name=STATIC_LOAD
  *step, name=STATIC_LOAD
  *step, name=STATIC_LOAD
  *step, name=STATIC_LOAD
  *static
  *boundary
  *nodeprint, nset=TIP
  *endstep
  *step, name=STATIC_LOAD
  *static
  *boundary
  *cload
  *endstep



                            P R O B L E M   S I Z E


          NUMBER OF ELEMENTS IS                                     4
          NUMBER OF NODES IS                                       10
          NUMBER OF NODES DEFINED BY THE USER                      10
          TOTAL NUMBER OF VARIABLES IN THE MODEL                   20
          (DEGREES OF FREEDOM PLUS MAX NO. OF ANY LAGRANGE MULTIPLIER
           VARIABLES. INCLUDE *PRINT,SOLVE=YES TO GET THE ACTUAL NUMBER.)



                              END OF USER INPUT PROCESSING



     JOB TIME SUMMARY
       USER TIME (SEC)      =       1.E-01
       SYSTEM TIME (SEC)    = ************
       TOTAL CPU TIME (SEC) =       1.E-01
       WALLCLOCK TIME (SEC) =            1
1

   Abaqus 2026                                  Date 13-4ÔÂ-2026   Time 13:19:05
   For use by Supplied by Team-SolidSQUAD under license from Dassault Systemes or its subsidiary.

     Cantilever beam under tip load - sim E2E verification                                     STEP    1  INCREMENT    1
                                                                                          TIME COMPLETED IN THIS STEP   0.00    


                        S T E P       1     S T A T I C   A N A L Y S I S


                                                                                          

     AUTOMATIC TIME CONTROL WITH -
          A SUGGESTED INITIAL TIME INCREMENT OF                 1.00    
          AND A TOTAL TIME PERIOD OF                            1.00    
          THE MINIMUM TIME INCREMENT ALLOWED IS                1.000E-05
          THE MAXIMUM TIME INCREMENT ALLOWED IS                 1.00    

     LINEAR EQUATION SOLVER TYPE         DIRECT SPARSE
  
                   M E M O R Y   E S T I M A T E
  
 PROCESS      FLOATING PT       MINIMUM MEMORY        MEMORY TO
              OPERATIONS           REQUIRED          MINIMIZE I/O
             PER ITERATION           (MB)               (MB)
  
     1          1.27E+03               17                 24
  
 NOTE:
      (1) SINCE ABAQUS DOES NOT PRE-ALLOCATE MEMORY AND ONLY ALLOCATES MEMORY AS NEEDED DURING THE ANALYSIS,
          THE MEMORY REQUIREMENT PRINTED HERE CAN ONLY BE VIEWED AS A GENERAL GUIDELINE BASED ON THE BEST
          KNOWLEDGE AVAILABLE AT THE BEGINNING OF A STEP BEFORE THE SOLUTION PROCESS HAS BEGUN.
      (2) THE ESTIMATE IS NORMALLY UPDATED AT THE BEGINNING OF EVERY STEP. IT IS THE MAXIMUM VALUE OF THE
          ESTIMATE FROM THE CURRENT STEP TO THE LAST STEP OF THE ANALYSIS, WITH UNSYMMETRIC SOLUTION TAKEN
          INTO ACCOUNT IF APPLICABLE. 
      (3) SINCE THE ESTIMATE IS BASED ON THE ACTIVE DEGREES OF FREEDOM IN THE FIRST ITERATION OF THE 
          CURRENT STEP, THE MEMORY ESTIMATE MIGHT BE SIGNIFICANTLY DIFFERENT THAN ACTUAL USAGE FOR 
          PROBLEMS WITH SUBSTANTIAL CHANGES IN ACTIVE DEGREES OF FREEDOM BETWEEN STEPS (OR EVEN WITHIN
          THE SAME STEP). EXAMPLES ARE: PROBLEMS WITH SIGNIFICANT CONTACT CHANGES, PROBLEMS WITH MODEL
          CHANGE, PROBLEMS WITH BOTH STATIC STEP AND STEADY STATE DYNAMIC PROCEDURES WHERE ACOUSTIC 
          ELEMENTS WILL ONLY BE ACTIVATED IN THE STEADY STATE DYNAMIC STEPS.
      (4) FOR MULTI-PROCESS EXECUTION, THE ESTIMATED VALUE OF FLOATING POINT OPERATIONS FOR EACH PROCESS
          IS BASED ON AN INITIAL SCHEDULING OF OPERATIONS AND MIGHT NOT REFLECT THE ACTUAL FLOATING 
          POINT OPERATIONS COMPLETED ON EACH PROCESS. OPERATIONS ARE DYNAMICALLY BALANCED DURING EXECUTION, 
          SO THE ACTUAL BALANCE OF OPERATIONS BETWEEN PROCESSES IS EXPECTED TO BE BETTER THAN THE ESTIMATE
          PRINTED HERE.
      (5) THE UPPER LIMIT OF MEMORY THAT CAN BE ALLOCATED BY ABAQUS WILL IN GENERAL DEPEND ON THE VALUE OF
          THE "MEMORY" PARAMETER AND THE AMOUNT OF PHYSICAL MEMORY AVAILABLE ON THE MACHINE. PLEASE SEE
          THE "ABAQUS ANALYSIS USER'S MANUAL" FOR MORE DETAILS. THE ACTUAL USAGE OF MEMORY AND OF DISK
          SPACE FOR SCRATCH DATA WILL DEPEND ON THIS UPPER LIMIT AS WELL AS THE MEMORY REQUIRED TO MINIMIZE
          I/O. IF THE MEMORY UPPER LIMIT IS GREATER THAN THE MEMORY REQUIRED TO MINIMIZE I/O, THEN THE ACTUAL
          MEMORY USAGE WILL BE CLOSE TO THE ESTIMATED "MEMORY TO MINIMIZE I/O" VALUE, AND THE SCRATCH DISK
          USAGE WILL BE CLOSE-TO-ZERO; OTHERWISE, THE ACTUAL MEMORY USED WILL BE CLOSE TO THE PREVIOUSLY
          MENTIONED MEMORY LIMIT, AND THE SCRATCH DISK USAGE WILL BE ROUGHLY PROPORTIONAL TO THE DIFFERENCE
          BETWEEN THE ESTIMATED "MEMORY TO MINIMIZE I/O" AND THE MEMORY UPPER LIMIT. HOWEVER ACCURATE
          ESTIMATE OF THE SCRATCH DISK SPACE IS NOT POSSIBLE.
      (6) USING "*RESTART, WRITE" CAN GENERATE A LARGE AMOUNT OF DATA WRITTEN IN THE WORK DIRECTORY.


                                INCREMENT     1 SUMMARY


 TIME INCREMENT COMPLETED   1.00    ,  FRACTION OF STEP COMPLETED   1.00    
 STEP TIME COMPLETED        1.00    ,  TOTAL TIME COMPLETED         1.00    
  
  
  
  
                                       N O D E   O U T P U T
  
  
  
  
   THE FOLLOWING TABLE IS PRINTED FOR NODES BELONGING TO NODE SET TIP
  
       NODE FOOT-  U1             U2           
            NOTE
  
         5     -4.2898087E-07 -5.7521961E-06 

 MAXIMUM        -4.2898E-07 -5.7522E-06
 AT NODE                 5           5

 MINIMUM        -4.2898E-07 -5.7522E-06
 AT NODE                 5           5


          THE ANALYSIS HAS BEEN COMPLETED



                              ANALYSIS COMPLETE



     JOB TIME SUMMARY
       USER TIME (SEC)      =       4.E+00
       SYSTEM TIME (SEC)    =       1.E-01
       TOTAL CPU TIME (SEC) =       4.E+00
       WALLCLOCK TIME (SEC) =            4
