*HEADING
Input deck with nodes/elements but no analysis step
*NODE
1, 0.0, 0.0, 0.0
2, 1.0, 0.0, 0.0
*ELEMENT, TYPE=T2D2, ELSET=ALL
1, 1, 2
*MATERIAL, NAME=STEEL
*ELASTIC
200000.0, 0.3
