*HEADING
Simple cantilever beam test
*NODE
1, 0.0, 0.0, 0.0
2, 1.0, 0.0, 0.0
3, 1.0, 0.1, 0.0
4, 0.0, 0.1, 0.0
*ELEMENT, TYPE=CPS4, ELSET=ALL
1, 1, 2, 3, 4
*MATERIAL, NAME=STEEL
*ELASTIC
200000.0, 0.3
*SOLID SECTION, ELSET=ALL, MATERIAL=STEEL
1.0,
*STEP
*STATIC
*BOUNDARY
1, 1, 2
4, 1, 2
*CLOAD
2, 2, -100.0
*END STEP
